xflr5 v6.57

Plane name :        elevator-10
Polar name :        T1-100.0 m/s-VLM1
Freestream speed : 100.000 m/s


   alpha      Beta       CL          CDi        CDv        CD         CY         Cl         Cm         Cn        Cni       QInf        XCP
  -25.000     0.000  -1.862389   0.251946   0.020136   0.272082  -0.000000  -0.000000   0.541870   0.000000   0.000000  100.0000     0.4874
  -24.000     0.000  -1.848354   0.251331   0.024255   0.275586  -0.000000  -0.000000   0.540502  -0.000000   0.000000  100.0000     0.4865
  -23.000     0.000  -1.800540   0.238479   0.021686   0.260165  -0.000000  -0.000000   0.531139   0.000000   0.000000  100.0000     0.4873
  -22.000     0.000  -1.751528   0.225638   0.019688   0.245326   0.000000  -0.000000   0.521355  -0.000000   0.000000  100.0000     0.4883
  -21.000     0.000  -1.701337   0.212847   0.018055   0.230902  -0.000000  -0.000000   0.511121   0.000000   0.000000  100.0000     0.4896
  -20.000     0.000  -1.649989   0.200142   0.016612   0.216754  -0.000000   0.000000   0.500423  -0.000000  -0.000000  100.0000     0.4912
  -19.000     0.000  -1.597510   0.187561   0.015338   0.202900  -0.000000  -0.000000   0.489271   0.000000   0.000000  100.0000     0.4930
  -18.000     0.000  -1.543925   0.175141   0.014152   0.189293  -0.000000   0.000000   0.477667   0.000000   0.000000  100.0000     0.4952
  -17.000     0.000  -1.489263   0.162917   0.013156   0.176073  -0.000000  -0.000000   0.465633   0.000000   0.000000  100.0000     0.4977
  -16.000     0.000  -1.433555   0.150924   0.012373   0.163297  -0.000000  -0.000000   0.453183  -0.000000  -0.000000  100.0000     0.5007
  -15.000     0.000  -1.376833   0.139197   0.011676   0.150873  -0.000000  -0.000000   0.440318  -0.000000  -0.000000  100.0000     0.5041
  -14.000     0.000  -1.319131   0.127769   0.011033   0.138802  -0.000000  -0.000000   0.427048  -0.000000  -0.000000  100.0000     0.5079
  -13.000     0.000  -1.260486   0.116673   0.010417   0.127089  -0.000000  -0.000000   0.413389  -0.000000  -0.000000  100.0000     0.5124
  -12.000     0.000  -1.200936   0.105939   0.009908   0.115846  -0.000000  -0.000000   0.399362  -0.000000  -0.000000  100.0000     0.5175
  -11.000     0.000  -1.140521   0.095597   0.009434   0.105031  -0.000000  -0.000000   0.384979   0.000000   0.000000  100.0000     0.5234
  -10.000     0.000  -1.079281   0.085677   0.008976   0.094653  -0.000000  -0.000000   0.370252  -0.000000  -0.000000  100.0000     0.5302
   -9.000     0.000  -1.017259   0.076206   0.008561   0.084767   0.000000  -0.000000   0.355203  -0.000000  -0.000000  100.0000     0.5381
   -8.000     0.000  -0.954501   0.067209   0.008158   0.075366  -0.000000   0.000000   0.339848   0.000000   0.000000  100.0000     0.5472
   -7.000     0.000  -0.891051   0.058711   0.007765   0.066475  -0.000000  -0.000000   0.324204  -0.000000  -0.000000  100.0000     0.5578
   -6.000     0.000  -0.826957   0.050735   0.007385   0.058119  -0.000000  -0.000000   0.308292   0.000000   0.000000  100.0000     0.5704
   -5.000     0.000  -0.762267   0.043302   0.007003   0.050305   0.000000  -0.000000   0.292129   0.000000   0.000000  100.0000     0.5853
   -4.000     0.000  -0.697031   0.036432   0.006611   0.043043  -0.000000  -0.000000   0.275735  -0.000000  -0.000000  100.0000     0.6033
   -3.000     0.000  -0.631299   0.030141   0.006214   0.036356  -0.000000   0.000000   0.259130  -0.000000  -0.000000  100.0000     0.6253
   -2.000     0.000  -0.565122   0.024448   0.005845   0.030292  -0.000000  -0.000000   0.242336   0.000000   0.000000  100.0000     0.6526
   -1.000     0.000  -0.498552   0.019364   0.005482   0.024846  -0.000000  -0.000000   0.225373  -0.000000   0.000000  100.0000     0.6876
    0.000     0.000  -0.431642   0.014903   0.005034   0.019937   0.000000  -0.000000   0.208258  -0.000000  -0.000000  100.0000     0.7337
    1.000     0.000  -0.364447   0.011075   0.004468   0.015543   0.000000  -0.000000   0.191013  -0.000000  -0.000000  100.0000     0.7970
    2.000     0.000  -0.297020   0.007889   0.004496   0.012385   0.000000  -0.000000   0.173667  -0.000000  -0.000000  100.0000     0.8893
    3.000     0.000  -0.229415   0.005350   0.004629   0.009979   0.000000  -0.000000   0.156230  -0.000000  -0.000000  100.0000     1.0364
    4.000     0.000  -0.161687   0.003463   0.004778   0.008241   0.000000  -0.000000   0.138723  -0.000000  -0.000000  100.0000     1.3069
    5.000     0.000  -0.093891   0.002231   0.004950   0.007181   0.000000  -0.000000   0.121166  -0.000000  -0.000000  100.0000     1.9680
    6.000     0.000  -0.026082   0.001654   0.005134   0.006788   0.000000  -0.000000   0.103581  -0.000000  -0.000000  100.0000     6.0655
    7.000     0.000   0.041685   0.001731   0.005341   0.007072   0.000000  -0.000000   0.085988   0.000000  -0.000000  100.0000    -3.1563
    8.000     0.000   0.109355   0.002458   0.005563   0.008021   0.000000  -0.000000   0.068410  -0.000000  -0.000000  100.0000    -0.9593
    9.000     0.000   0.176874   0.003829   0.005793   0.009622   0.000000  -0.000000   0.050867   0.000000  -0.000000  100.0000    -0.4421
   10.000     0.000   0.244187   0.005837   0.006021   0.011858  -0.000000  -0.000000   0.033381  -0.000000  -0.000000  100.0000    -0.2108
   11.000     0.000   0.311241   0.008473   0.006271   0.014743   0.000000  -0.000000   0.015973  -0.000000  -0.000000  100.0000    -0.0795
   12.000     0.000   0.377982   0.011725   0.006522   0.018247   0.000000  -0.000000  -0.001337   0.000000   0.000000  100.0000     0.0053
   13.000     0.000   0.444359   0.015580   0.006800   0.022380  -0.000000  -0.000000  -0.018527   0.000000   0.000000  100.0000     0.0647
   14.000     0.000   0.510319   0.020023   0.007074   0.027096  -0.000000  -0.000000  -0.035576   0.000000   0.000000  100.0000     0.1088
   15.000     0.000   0.575813   0.025037   0.007365   0.032402   0.000000  -0.000000  -0.052464  -0.000000  -0.000000  100.0000     0.1428
   16.000     0.000   0.640789   0.030603   0.007714   0.038318  -0.000000  -0.000000  -0.069173  -0.000000  -0.000000  100.0000     0.1700
   17.000     0.000   0.705200   0.036702   0.008057   0.044759  -0.000000  -0.000000  -0.085681  -0.000000  -0.000000  100.0000     0.1923
   18.000     0.000   0.768998   0.043311   0.008398   0.051709  -0.000000  -0.000000  -0.101966  -0.000000  -0.000000  100.0000     0.2109
   19.000     0.000   0.832137   0.050406   0.008755   0.059161  -0.000000  -0.000000  -0.118011  -0.000000  -0.000000  100.0000     0.2269
   20.000     0.000   0.894572   0.057963   0.009147   0.067110  -0.000000  -0.000000  -0.133796  -0.000000  -0.000000  100.0000     0.2407
   21.000     0.000   0.956260   0.065955   0.009634   0.075589  -0.000000  -0.000000  -0.149307  -0.000000  -0.000000  100.0000     0.2528
   22.000     0.000   1.017159   0.074354   0.010179   0.084533  -0.000000  -0.000000  -0.164525  -0.000000  -0.000000  100.0000     0.2636
   23.000     0.000   1.077228   0.083131   0.010672   0.093803  -0.000000  -0.000000  -0.179425  -0.000000  -0.000000  100.0000     0.2733
   24.000     0.000   1.136430   0.092255   0.011181   0.103436  -0.000000  -0.000000  -0.193993  -0.000000  -0.000000  100.0000     0.2821
   25.000     0.000   1.194727   0.101696   0.011710   0.113405  -0.000000  -0.000000  -0.208210   0.000000   0.000000  100.0000     0.2902


