xflr5 v6.57

Plane name :        fin+10
Polar name :        T1-100.0 m/s-VLM1
Freestream speed : 100.000 m/s


   alpha      Beta       CL          CDi        CDv        CD         CY         Cl         Cm         Cn        Cni       QInf        XCP
  -25.000     0.000  -0.600719   0.080971   0.007043   0.088013  -0.077386  -0.159633   0.035950   0.001382   0.003076  100.0000     0.1466
  -24.000     0.000  -0.571061   0.072968   0.006902   0.079870  -0.071575  -0.150760   0.029336   0.001033   0.002692  100.0000     0.1248
  -23.000     0.000  -0.540736   0.065254   0.006754   0.072009  -0.065934  -0.141863   0.022601   0.000700   0.002321  100.0000     0.1006
  -22.000     0.000  -0.509770   0.057858   0.006615   0.064473  -0.060470  -0.132946   0.015754   0.000380   0.001965  100.0000     0.0737
  -21.000     0.000  -0.478190   0.050806   0.006480   0.057286  -0.055188  -0.124009   0.008803   0.000074   0.001625  100.0000     0.0433
  -20.000     0.000  -0.446026   0.044123   0.006353   0.050476  -0.050096  -0.115055   0.001756  -0.000216   0.001302  100.0000     0.0086
  -19.000     0.000  -0.413308   0.037835   0.006221   0.044056  -0.045200  -0.106085  -0.005378  -0.000488   0.000998  100.0000    -0.0315
  -18.000     0.000  -0.380068   0.031964   0.006087   0.038050  -0.040506  -0.097101  -0.012592  -0.000739   0.000713  100.0000    -0.0786
  -17.000     0.000  -0.346339   0.026532   0.005948   0.032480  -0.036019  -0.088106  -0.019876  -0.000968   0.000449  100.0000    -0.1350
  -16.000     0.000  -0.312156   0.021559   0.005809   0.027368  -0.031745  -0.079099  -0.027221  -0.001176   0.000207  100.0000    -0.2037
  -15.000     0.000  -0.277554   0.017066   0.005672   0.022738  -0.027689  -0.070084  -0.034618  -0.001362  -0.000014  100.0000    -0.2897
  -14.000     0.000  -0.242568   0.013069   0.005518   0.018587  -0.023856  -0.061061  -0.042060  -0.001520  -0.000211  100.0000    -0.4007
  -13.000     0.000  -0.207238   0.009585   0.005362   0.014947  -0.020252  -0.052033  -0.049536  -0.001653  -0.000384  100.0000    -0.5500
  -12.000     0.000  -0.171600   0.006628   0.005212   0.011840  -0.016879  -0.043000  -0.057037  -0.001762  -0.000532  100.0000    -0.7617
  -11.000     0.000  -0.135694   0.004211   0.005079   0.009290  -0.013742  -0.033964  -0.064553  -0.001851  -0.000655  100.0000    -1.0862
  -10.000     0.000  -0.099559   0.002346   0.004946   0.007292  -0.010846  -0.024926  -0.072076  -0.001914  -0.000752  100.0000    -1.6477
   -9.000     0.000  -0.063235   0.001042   0.004805   0.005847  -0.008193  -0.015888  -0.079597  -0.001950  -0.000823  100.0000    -2.8567
   -8.000     0.000  -0.026764   0.000308   0.004660   0.004968  -0.005788  -0.006852  -0.087107  -0.001957  -0.000867  100.0000    -7.3675
   -7.000     0.000   0.009814   0.000148   0.004540   0.004688  -0.003631   0.002182  -0.094596  -0.001943  -0.000885  100.0000    21.7710
   -6.000     0.000   0.046458   0.000568   0.004458   0.005026  -0.001728   0.011212  -0.102056  -0.001908  -0.000875  100.0000     4.9525
   -5.000     0.000   0.083125   0.001570   0.004406   0.005976  -0.000079   0.020237  -0.109477  -0.001848  -0.000838  100.0000     2.9646
   -4.000     0.000   0.119774   0.003156   0.004350   0.007506   0.001313   0.029255  -0.116851  -0.001761  -0.000774  100.0000     2.1933
   -3.000     0.000   0.156364   0.005324   0.004308   0.009632   0.002447   0.038266  -0.124169  -0.001651  -0.000682  100.0000     1.7836
   -2.000     0.000   0.192852   0.008071   0.004410   0.012481   0.003321   0.047267  -0.131421  -0.001562  -0.000563  100.0000     1.5297
   -1.000     0.000   0.229198   0.011394   0.004678   0.016072   0.003934   0.056257  -0.138603  -0.001488  -0.000417  100.0000     1.3570
    0.000     0.000   0.265359   0.015285   0.004841   0.020126   0.004286   0.065235  -0.145704  -0.001357  -0.000245  100.0000     1.2321
    1.000     0.000   0.301296   0.019738   0.004995   0.024733   0.004375   0.074200  -0.152715  -0.001198  -0.000046  100.0000     1.1376
    2.000     0.000   0.336968   0.024742   0.005118   0.029860   0.004202   0.083151  -0.159628  -0.001004   0.000179  100.0000     1.0639
    3.000     0.000   0.372335   0.030286   0.005237   0.035523   0.003767   0.092085  -0.166434  -0.000787   0.000429  100.0000     1.0047
    4.000     0.000   0.407358   0.036357   0.005366   0.041722   0.003071   0.101002  -0.173125  -0.000546   0.000704  100.0000     0.9564
    5.000     0.000   0.441998   0.042940   0.005492   0.048432   0.002114   0.109900  -0.179693  -0.000280   0.001004  100.0000     0.9162
    6.000     0.000   0.476218   0.050019   0.005624   0.055643   0.000898   0.118778  -0.186130   0.000008   0.001326  100.0000     0.8824
    7.000     0.000   0.509982   0.057577   0.005760   0.063337  -0.000576   0.127634  -0.192429   0.000317   0.001671  100.0000     0.8536
    8.000     0.000   0.543253   0.065594   0.005896   0.071490  -0.002306   0.136467  -0.198582   0.000647   0.002038  100.0000     0.8290
    9.000     0.000   0.575997   0.074049   0.006032   0.080081  -0.004290   0.145275  -0.204580   0.000999   0.002425  100.0000     0.8076
   10.000     0.000   0.608180   0.082920   0.006178   0.089098  -0.006526   0.154056  -0.210419   0.001367   0.002832  100.0000     0.7891
   11.000     0.000   0.639771   0.092183   0.006315   0.098499  -0.009011   0.162809  -0.216088   0.001757   0.003258  100.0000     0.7729
   12.000     0.000   0.670738   0.101815   0.006456   0.108271  -0.011742   0.171533  -0.221582   0.002163   0.003701  100.0000     0.7587
   13.000     0.000   0.701052   0.111789   0.006603   0.118392  -0.014715   0.180225  -0.226896   0.002584   0.004160  100.0000     0.7462
   14.000     0.000   0.730684   0.122077   0.006739   0.128816  -0.017927   0.188884  -0.232020   0.003023   0.004635  100.0000     0.7353
   15.000     0.000   0.759608   0.132653   0.006872   0.139525  -0.021374   0.197507  -0.236949   0.003476   0.005123  100.0000     0.7256
   16.000     0.000   0.787799   0.143486   0.007006   0.150492  -0.025052   0.206094  -0.241678   0.003942   0.005623  100.0000     0.7171
   17.000     0.000   0.815234   0.154548   0.007142   0.161690  -0.028956   0.214642  -0.246202   0.004418   0.006135  100.0000     0.7097
   18.000     0.000   0.841890   0.165806   0.007283   0.173089  -0.033082   0.223149  -0.250513   0.004902   0.006656  100.0000     0.7032
   19.000     0.000   0.867747   0.177230   0.007418   0.184648  -0.037424   0.231613  -0.254608   0.005396   0.007185  100.0000     0.6975
   20.000     0.000   0.892787   0.188787   0.007544   0.196331  -0.041978   0.240032  -0.258480   0.005899   0.007720  100.0000     0.6925
   21.000     0.000   0.916993   0.200445   0.007666   0.208111  -0.046737   0.248405  -0.262124   0.006408   0.008261  100.0000     0.6883
   22.000     0.000   0.940351   0.212171   0.007787   0.219958  -0.051696   0.256728  -0.265538   0.006920   0.008805  100.0000     0.6847
   23.000     0.000   0.962847   0.223930   0.007918   0.231848  -0.056849   0.264999  -0.268718   0.007432   0.009352  100.0000     0.6816
   24.000     0.000   0.984470   0.235690   0.008045   0.243735  -0.062189   0.273216  -0.271658   0.007945   0.009898  100.0000     0.6791
   25.000     0.000   1.005210   0.247415   0.008166   0.255581  -0.067711   0.281378  -0.274355   0.008460   0.010444  100.0000     0.6772


