xflr5 v6.57

Plane name :        fin
Polar name :        T1-100.0 m/s-VLM1
Freestream speed : 100.000 m/s


   alpha      Beta       CL          CDi        CDv        CD         CY         Cl         Cm         Cn        Cni       QInf        XCP
  -25.000     0.000  -0.777720   0.139976   0.006671   0.146646  -0.077218  -0.213475   0.135849   0.004833   0.006425  100.0000     0.4307
  -24.000     0.000  -0.753126   0.130688   0.006584   0.137273  -0.071523  -0.205241   0.131775   0.004431   0.005998  100.0000     0.4281
  -23.000     0.000  -0.727802   0.121524   0.006503   0.128027  -0.066005  -0.196966   0.127542   0.004031   0.005578  100.0000     0.4256
  -22.000     0.000  -0.701765   0.112511   0.006417   0.118928  -0.060670  -0.188654   0.123154   0.003640   0.005164  100.0000     0.4231
  -21.000     0.000  -0.675033   0.103679   0.006323   0.110002  -0.055524  -0.180307   0.118617   0.003261   0.004759  100.0000     0.4208
  -20.000     0.000  -0.647626   0.095054   0.006234   0.101288  -0.050574  -0.171927   0.113937   0.002889   0.004363  100.0000     0.4186
  -19.000     0.000  -0.619566   0.086663   0.006158   0.092821  -0.045825  -0.163515   0.109120   0.002524   0.003978  100.0000     0.4165
  -18.000     0.000  -0.590875   0.078533   0.006078   0.084611  -0.041284  -0.155073   0.104171   0.002172   0.003605  100.0000     0.4146
  -17.000     0.000  -0.561579   0.070688   0.005996   0.076685  -0.036957  -0.146604   0.099096   0.001834   0.003244  100.0000     0.4127
  -16.000     0.000  -0.531701   0.063154   0.005920   0.069073  -0.032847  -0.138109   0.093902   0.001508   0.002899  100.0000     0.4109
  -15.000     0.000  -0.501271   0.055952   0.005845   0.061797  -0.028961  -0.129590   0.088594   0.001197   0.002568  100.0000     0.4093
  -14.000     0.000  -0.470315   0.049106   0.005770   0.054876  -0.025303  -0.121048   0.083179   0.000903   0.002254  100.0000     0.4077
  -13.000     0.000  -0.438864   0.042636   0.005694   0.048331  -0.021877  -0.112486   0.077664   0.000626   0.001957  100.0000     0.4063
  -12.000     0.000  -0.406947   0.036563   0.005621   0.042184  -0.018689  -0.103904   0.072055   0.000366   0.001678  100.0000     0.4050
  -11.000     0.000  -0.374597   0.030905   0.005553   0.036458  -0.015741  -0.095306   0.066359   0.000124   0.001418  100.0000     0.4038
  -10.000     0.000  -0.341846   0.025679   0.005482   0.031161  -0.013037  -0.086691   0.060583  -0.000097   0.001179  100.0000     0.4027
   -9.000     0.000  -0.308727   0.020901   0.005413   0.026313  -0.010580  -0.078062   0.054734  -0.000298   0.000959  100.0000     0.4017
   -8.000     0.000  -0.275276   0.016586   0.005347   0.021934  -0.008374  -0.069420   0.048819  -0.000480   0.000761  100.0000     0.4008
   -7.000     0.000  -0.241526   0.012747   0.005280   0.018028  -0.006421  -0.060767   0.042845  -0.000638   0.000585  100.0000     0.4000
   -6.000     0.000  -0.207514   0.009396   0.005215   0.014611  -0.004724  -0.052104   0.036820  -0.000774   0.000431  100.0000     0.3993
   -5.000     0.000  -0.173276   0.006544   0.005163   0.011706  -0.003284  -0.043433   0.030751  -0.000890   0.000300  100.0000     0.3987
   -4.000     0.000  -0.138849   0.004197   0.005124   0.009322  -0.002104  -0.034755   0.024645  -0.000989   0.000193  100.0000     0.3982
   -3.000     0.000  -0.104270   0.002365   0.005087   0.007452  -0.001184  -0.026071   0.018510  -0.001063   0.000109  100.0000     0.3979
   -2.000     0.000  -0.069577   0.001053   0.005054   0.006106  -0.000527  -0.017383   0.012352  -0.001115   0.000048  100.0000     0.3976
   -1.000     0.000  -0.034807   0.000263   0.005042   0.005306  -0.000132  -0.008692   0.006180  -0.001147   0.000012  100.0000     0.3974
    0.000     0.000   0.000000   0.000000   0.005051   0.005051   0.000000   0.000000   0.000000  -0.001161   0.000000  100.0000     0.0000
    1.000     0.000   0.034807   0.000263   0.005042   0.005306  -0.000132   0.008692  -0.006180  -0.001147   0.000012  100.0000     0.3974
    2.000     0.000   0.069577   0.001053   0.005054   0.006106  -0.000527   0.017383  -0.012352  -0.001115   0.000048  100.0000     0.3976
    3.000     0.000   0.104270   0.002365   0.005087   0.007452  -0.001184   0.026071  -0.018510  -0.001063   0.000109  100.0000     0.3979
    4.000     0.000   0.138849   0.004197   0.005124   0.009322  -0.002104   0.034755  -0.024645  -0.000989   0.000193  100.0000     0.3982
    5.000     0.000   0.173276   0.006544   0.005163   0.011706  -0.003284   0.043433  -0.030751  -0.000890   0.000300  100.0000     0.3987
    6.000     0.000   0.207514   0.009396   0.005215   0.014611  -0.004724   0.052104  -0.036820  -0.000774   0.000431  100.0000     0.3993
    7.000     0.000   0.241526   0.012747   0.005280   0.018028  -0.006421   0.060767  -0.042845  -0.000638   0.000585  100.0000     0.4000
    8.000     0.000   0.275276   0.016586   0.005347   0.021933  -0.008374   0.069420  -0.048819  -0.000480   0.000761  100.0000     0.4008
    9.000     0.000   0.308727   0.020901   0.005412   0.026313  -0.010580   0.078062  -0.054734  -0.000298   0.000959  100.0000     0.4017
   10.000     0.000   0.341846   0.025679   0.005482   0.031161  -0.013037   0.086691  -0.060583  -0.000097   0.001179  100.0000     0.4027
   11.000     0.000   0.374597   0.030905   0.005553   0.036458  -0.015741   0.095306  -0.066359   0.000124   0.001418  100.0000     0.4038
   12.000     0.000   0.406947   0.036563   0.005621   0.042184  -0.018689   0.103904  -0.072055   0.000366   0.001678  100.0000     0.4050
   13.000     0.000   0.438864   0.042636   0.005694   0.048330  -0.021877   0.112486  -0.077664   0.000626   0.001957  100.0000     0.4063
   14.000     0.000   0.470315   0.049106   0.005770   0.054876  -0.025303   0.121048  -0.083179   0.000903   0.002254  100.0000     0.4077
   15.000     0.000   0.501271   0.055952   0.005844   0.061797  -0.028961   0.129590  -0.088594   0.001198   0.002568  100.0000     0.4093
   16.000     0.000   0.531701   0.063154   0.005920   0.069073  -0.032847   0.138109  -0.093902   0.001508   0.002899  100.0000     0.4109
   17.000     0.000   0.561579   0.070688   0.005996   0.076684  -0.036957   0.146604  -0.099096   0.001834   0.003244  100.0000     0.4127
   18.000     0.000   0.590875   0.078533   0.006078   0.084611  -0.041284   0.155073  -0.104171   0.002172   0.003605  100.0000     0.4146
   19.000     0.000   0.619566   0.086663   0.006158   0.092821  -0.045825   0.163515  -0.109120   0.002524   0.003978  100.0000     0.4165
   20.000     0.000   0.647626   0.095054   0.006234   0.101288  -0.050574   0.171927  -0.113937   0.002889   0.004363  100.0000     0.4186
   21.000     0.000   0.675033   0.103679   0.006323   0.110002  -0.055524   0.180307  -0.118617   0.003261   0.004759  100.0000     0.4208
   22.000     0.000   0.701765   0.112511   0.006417   0.118928  -0.060670   0.188654  -0.123154   0.003640   0.005164  100.0000     0.4231
   23.000     0.000   0.727802   0.121524   0.006503   0.128027  -0.066005   0.196966  -0.127542   0.004032   0.005578  100.0000     0.4256
   24.000     0.000   0.753126   0.130688   0.006584   0.137272  -0.071523   0.205241  -0.131775   0.004431   0.005998  100.0000     0.4281
   25.000     0.000   0.777720   0.139976   0.006670   0.146646  -0.077218   0.213475  -0.135849   0.004833   0.006425  100.0000     0.4307


