xflr5 v6.57

Plane name :        plane_wing
Polar name :        T1-100.0 m/s-VLM1
Freestream speed : 100.000 m/s


   alpha      Beta       CL          CDi        CDv        CD         CY         Cl         Cm         Cn        Cni       QInf        XCP
  -21.000     0.000  -1.436335   0.059170   0.017553   0.076723   0.000000  -0.000000  -0.110682  -0.000000  -0.000000  100.0000    -0.1792
  -20.000     0.000  -1.354414   0.052784   0.015830   0.068614   0.000000  -0.000000  -0.110665   0.000000   0.000000  100.0000    -0.1906
  -19.000     0.000  -1.271713   0.046677   0.014318   0.060995   0.000000  -0.000000  -0.110640  -0.000000   0.000000  100.0000    -0.2035
  -18.000     0.000  -1.188274   0.040870   0.012976   0.053846   0.000000  -0.000000  -0.110606   0.000000   0.000000  100.0000    -0.2183
  -17.000     0.000  -1.104139   0.035383   0.011849   0.047232   0.000000  -0.000000  -0.110563   0.000000   0.000000  100.0000    -0.2353
  -16.000     0.000  -1.019352   0.030235   0.010926   0.041161   0.000000  -0.000000  -0.110512  -0.000000  -0.000000  100.0000    -0.2553
  -15.000     0.000  -0.933956   0.025443   0.010119   0.035563   0.000000  -0.000000  -0.110453   0.000000   0.000000  100.0000    -0.2790
  -14.000     0.000  -0.847998   0.021024   0.009342   0.030366   0.000000  -0.000000  -0.110385  -0.000000  -0.000000  100.0000    -0.3075
  -13.000     0.000  -0.761524   0.016993   0.008646   0.025639   0.000000  -0.000000  -0.110310  -0.000000  -0.000000  100.0000    -0.3426
  -12.000     0.000  -0.674581   0.013364   0.008073   0.021437   0.000000  -0.000000  -0.110226  -0.000000  -0.000000  100.0000    -0.3869
  -11.000     0.000  -0.587218   0.010151   0.007543   0.017694   0.000000  -0.000000  -0.110134  -0.000000  -0.000000  100.0000    -0.4445
  -10.000     0.000  -0.499483   0.007365   0.007065   0.014430   0.000000  -0.000000  -0.110035  -0.000000  -0.000000  100.0000    -0.5224
   -9.000     0.000  -0.411426   0.005016   0.006652   0.011668   0.000000  -0.000000  -0.109927  -0.000000   0.000000  100.0000    -0.6338
   -8.000     0.000  -0.323096   0.003113   0.006294   0.009408   0.000000  -0.000000  -0.109812  -0.000000  -0.000000  100.0000    -0.8063
   -7.000     0.000  -0.234545   0.001665   0.005978   0.007643   0.000000  -0.000000  -0.109690   0.000000   0.000000  100.0000    -1.1093
   -6.000     0.000  -0.145824   0.000676   0.005708   0.006384   0.000000  -0.000000  -0.109560  -0.000000  -0.000000  100.0000    -1.7815
   -5.000     0.000  -0.056983   0.000153   0.005480   0.005633   0.000000  -0.000000  -0.109423  -0.000000  -0.000000  100.0000    -4.5507
   -4.000     0.000   0.031926   0.000098   0.005307   0.005405   0.000000  -0.000000  -0.109279   0.000000  -0.000000  100.0000     8.1049
   -3.000     0.000   0.120850   0.000514   0.005190   0.005704   0.000000  -0.000000  -0.109128   0.000000  -0.000000  100.0000     2.1358
   -2.000     0.000   0.209740   0.001400   0.005110   0.006511   0.000000  -0.000000  -0.108971  -0.000000  -0.000000  100.0000     1.2272
   -1.000     0.000   0.298542   0.002758   0.005070   0.007827   0.000000  -0.000000  -0.108807  -0.000000  -0.000000  100.0000     0.8595
    0.000     0.000   0.387204   0.004583   0.005061   0.009644   0.000000  -0.000000  -0.108637  -0.000000  -0.000000  100.0000     0.6605
    1.000     0.000   0.475677   0.006872   0.005086   0.011958   0.000000   0.000000  -0.108461   0.000000   0.000000  100.0000     0.5356
    2.000     0.000   0.563908   0.009621   0.005124   0.014745   0.000000   0.000000  -0.108279  -0.000000  -0.000000  100.0000     0.4500
    3.000     0.000   0.651846   0.012822   0.005152   0.017973   0.000000   0.000000  -0.108091   0.000000   0.000000  100.0000     0.3876
    4.000     0.000   0.739441   0.016468   0.005209   0.021676   0.000000   0.000000  -0.107898  -0.000000  -0.000000  100.0000     0.3401
    5.000     0.000   0.826643   0.020549   0.005394   0.025943   0.000000   0.000000  -0.107700  -0.000000  -0.000000  100.0000     0.3027
    6.000     0.000   0.913403   0.025055   0.005839   0.030894   0.000000   0.000000  -0.107497  -0.000000  -0.000000  100.0000     0.2725
    7.000     0.000   0.999671   0.029974   0.006423   0.036397   0.000000   0.000000  -0.107289   0.000000   0.000000  100.0000     0.2476
    8.000     0.000   1.085401   0.035292   0.007091   0.042383   0.000000   0.000000  -0.107077  -0.000000  -0.000000  100.0000     0.2266
    9.000     0.000   1.170544   0.040996   0.007725   0.048721   0.000000   0.000000  -0.106861   0.000000   0.000000  100.0000     0.2088
   10.000     0.000   1.255055   0.047069   0.008355   0.055424   0.000000   0.000000  -0.106641  -0.000000  -0.000000  100.0000     0.1934
   11.000     0.000   1.338888   0.053495   0.009003   0.062498   0.000000   0.000000  -0.106417   0.000000   0.000000  100.0000     0.1801
   12.000     0.000   1.421998   0.060256   0.009682   0.069938   0.000000   0.000000  -0.106190   0.000000   0.000000  100.0000     0.1683
   13.000     0.000   1.504343   0.067332   0.010397   0.077729   0.000000   0.000000  -0.105960  -0.000000  -0.000000  100.0000     0.1578
   14.000     0.000   1.585880   0.074704   0.011197   0.085901   0.000000   0.000000  -0.105727  -0.000000  -0.000000  100.0000     0.1485
   15.000     0.000   1.666569   0.082351   0.012098   0.094449   0.000000   0.000000  -0.105492   0.000000   0.000000  100.0000     0.1401
   16.000     0.000   1.746369   0.090251   0.013273   0.103523   0.000000   0.000000  -0.105254   0.000000   0.000000  100.0000     0.1325
   17.000     0.000   1.825243   0.098381   0.015014   0.113395   0.000000   0.000000  -0.105015   0.000000   0.000000  100.0000     0.1256
   18.000     0.000   1.903153   0.106718   0.017464   0.124182   0.000000   0.000000  -0.104774  -0.000000  -0.000000  100.0000     0.1193
   19.000     0.000   1.980065   0.115237   0.021758   0.136996   0.000000   0.000000  -0.104531  -0.000000  -0.000000  100.0000     0.1135


